Version 4
SHEET 1 1028 680
WIRE -384 48 -384 16
WIRE 288 144 240 144
WIRE -384 160 -384 128
WIRE 480 160 432 160
WIRE 672 176 624 176
WIRE 864 192 816 192
WIRE -384 288 -384 256
WIRE -384 400 -384 368
FLAG -384 400 0
FLAG -384 160 0
FLAG -384 256 Vcc
FLAG -384 16 CLK
FLAG 96 160 Vcc
FLAG 96 192 Vcc
FLAG 288 208 Vcc
FLAG 288 176 Vcc
FLAG 96 128 CLK
FLAG 480 224 Vcc
FLAG 480 192 Vcc
FLAG 672 240 Vcc
FLAG 672 208 Vcc
SYMBOL JKFlipFlop 160 160 R0
SYMATTR InstName X1
SYMBOL JKFlipFlop 352 176 R0
SYMATTR InstName X2
SYMBOL voltage -384 32 R0
WINDOW 123 0 0 Left 0
WINDOW 39 0 0 Left 0
SYMATTR InstName V1
SYMATTR Value PULSE(0 5 1m 10n 10n 1m 2m)
SYMBOL voltage -384 272 R0
WINDOW 123 0 0 Left 0
WINDOW 39 0 0 Left 0
SYMATTR InstName V2
SYMATTR Value 5
SYMBOL JKFlipFlop 544 192 R0
SYMATTR InstName X3
SYMBOL JKFlipFlop 736 208 R0
SYMATTR InstName X4
TEXT -40 -72 Left 2 !.tran 40m
