Version 4
SHEET 1 1368 680
WIRE -272 -64 -272 -96
WIRE 864 -48 768 -48
WIRE 656 -32 576 -32
WIRE -272 48 -272 16
WIRE 896 48 832 48
WIRE 1120 48 1072 48
WIRE 864 80 864 -48
WIRE 896 80 864 80
WIRE 576 128 576 -32
WIRE 576 128 512 128
WIRE -272 192 -272 160
WIRE 576 224 576 128
WIRE 656 224 576 224
WIRE 832 240 832 48
WIRE 832 240 768 240
WIRE 432 256 384 256
WIRE 656 256 544 256
WIRE -272 304 -272 272
FLAG -272 48 0
FLAG -272 -96 A
FLAG 656 -64 A
FLAG -272 304 0
FLAG -272 160 CLK
FLAG 512 128 CLK
FLAG 384 256 A
SYMBOL SRLatch 976 64 R0
WINDOW 0 0 0 Invisible 0
SYMATTR SpiceLine Vcc = 5V
SYMATTR InstName X1
SYMBOL voltage -272 -80 R0
WINDOW 123 0 0 Left 0
WINDOW 39 0 0 Left 0
SYMATTR InstName V1
SYMATTR Value PULSE(0 5 1m 10n 10n 1m 2m)
SYMBOL ANDgate 704 -48 R0
SYMATTR InstName X3
SYMBOL ANDgate 704 240 R0
SYMATTR InstName X4
SYMBOL voltage -272 176 R0
WINDOW 123 0 0 Left 0
WINDOW 39 0 0 Left 0
SYMATTR InstName V3
SYMATTR Value PULSE(0 5 1m 10n 10n 4m 8m)
SYMBOL NOTgate 480 256 R0
SYMATTR InstName X2
TEXT 406 400 Left 2 !.tran 8m
