Version 4
SHEET 1 1224 728
WIRE 624 32 432 32
WIRE 784 48 736 48
WIRE 0 64 -96 64
WIRE 624 64 544 64
WIRE -208 80 -256 80
WIRE 160 80 112 80
WIRE 160 112 160 80
WIRE 208 112 160 112
WIRE 432 112 432 32
WIRE 432 112 384 112
WIRE 784 112 784 48
WIRE 832 112 784 112
WIRE 208 144 160 144
WIRE 432 144 384 144
WIRE 832 144 784 144
WIRE 432 208 432 144
WIRE 624 208 432 208
WIRE 0 224 -96 224
WIRE 784 224 784 144
WIRE 784 224 736 224
WIRE -256 240 -256 80
WIRE -208 240 -256 240
WIRE 160 240 160 144
WIRE 160 240 112 240
WIRE 544 240 544 64
WIRE 624 240 544 240
WIRE -256 544 -256 240
WIRE -256 544 -288 544
WIRE 176 544 -256 544
WIRE 544 544 544 240
WIRE 544 544 288 544
FLAG -288 544 CLK
IOPIN -288 544 In
FLAG 1008 112 Q
IOPIN 1008 112 Out
FLAG 1008 144 Qnot
IOPIN 1008 144 Out
FLAG 0 256 Q
FLAG 0 96 Qnot
FLAG -208 48 J
IOPIN -208 48 In
FLAG -208 208 K
IOPIN -208 208 In
SYMBOL srlatch 288 128 R0
SYMATTR InstName X1
SYMBOL srlatch 912 128 R0
SYMATTR InstName X2
SYMBOL ANDgate -160 64 R0
SYMATTR InstName X3
SYMBOL ANDgate -160 224 R0
SYMATTR InstName X4
SYMBOL ANDgate 672 48 R0
SYMATTR InstName X5
SYMBOL ANDgate 672 224 R0
SYMATTR InstName X6
SYMBOL NOTgate 224 544 R0
SYMATTR InstName X7
SYMBOL ANDgate 48 80 R0
SYMATTR InstName X8
SYMBOL ANDgate 48 240 R0
SYMATTR InstName X9
