Version 4
SHEET 1 880 680
WIRE 128 144 96 144
WIRE 272 160 240 160
WIRE 320 160 272 160
WIRE 128 176 96 176
WIRE 272 240 272 160
WIRE 272 240 64 240
WIRE 96 288 96 176
WIRE 272 288 96 288
WIRE 64 352 64 240
WIRE 128 352 64 352
WIRE 272 368 272 288
WIRE 272 368 240 368
WIRE 320 368 272 368
WIRE 128 384 96 384
FLAG 96 144 Set
IOPIN 96 144 In
FLAG 96 384 Reset
IOPIN 96 384 In
FLAG 320 368 Q
IOPIN 320 368 Out
FLAG 320 160 Qnot
IOPIN 320 160 Out
SYMBOL NORgate 176 160 R0
SYMATTR InstName X1
SYMBOL NORgate 176 368 R0
SYMATTR InstName X2
