Version 4
SHEET 1 880 680
WIRE -16 -192 -16 -224
WIRE -48 -160 -80 -160
WIRE 48 -160 16 -160
WIRE -112 -80 -144 -80
WIRE -16 -80 -16 -144
WIRE -16 -80 -32 -80
WIRE 0 -80 -16 -80
WIRE 128 -80 96 -80
WIRE -64 16 -96 16
WIRE 48 16 48 -16
WIRE 48 16 16 16
WIRE 80 16 48 16
WIRE 224 16 176 16
WIRE 352 16 320 16
WIRE 128 112 128 80
WIRE 272 112 272 80
WIRE 128 224 128 192
WIRE 272 224 272 192
FLAG 128 224 A
IOPIN 128 224 In
FLAG 272 224 B
IOPIN 272 224 In
FLAG -16 -224 Out
IOPIN -16 -224 Out
FLAG -96 16 +
IOPIN -96 16 In
FLAG 352 16 -
IOPIN 352 16 In
FLAG 128 -80 -
IOPIN 128 -80 In
FLAG -144 -80 +
IOPIN -144 -80 In
FLAG -80 -160 +
IOPIN -80 -160 In
FLAG 48 -160 -
IOPIN 48 -160 In
SYMBOL res 112 96 R0
SYMATTR InstName R1
SYMATTR Value 10k
SYMBOL res 256 96 R0
SYMATTR InstName R2
SYMATTR Value 10k
SYMBOL res 32 0 R90
WINDOW 0 0 56 VBottom 2
WINDOW 3 32 56 VTop 2
SYMATTR InstName R3
SYMATTR Value 10k
SYMBOL npn 80 80 R270
SYMATTR InstName Q1
SYMBOL npn 224 80 R270
SYMATTR InstName Q2
SYMBOL res -16 -96 R90
WINDOW 0 0 56 VBottom 2
WINDOW 3 32 56 VTop 2
SYMATTR InstName R4
SYMATTR Value 10k
SYMBOL npn 0 -16 R270
SYMATTR InstName Q3
SYMBOL Buffer -16 -144 R270
SYMATTR InstName X1
