Version 4
SHEET 1 880 680
WIRE 240 -80 240 -112
WIRE 432 -48 432 -80
WIRE 400 -16 368 -16
WIRE 496 -16 464 -16
WIRE 240 32 240 0
WIRE 240 32 176 32
WIRE 304 32 240 32
WIRE 432 32 432 0
WIRE 432 32 304 32
WIRE 176 64 176 32
WIRE 304 64 304 32
WIRE 0 112 -16 112
WIRE 112 112 80 112
WIRE 400 112 368 112
WIRE 496 112 480 112
WIRE 176 192 176 160
WIRE 240 192 176 192
WIRE 304 192 304 160
WIRE 304 192 240 192
WIRE 240 272 240 192
FLAG 240 272 -
IOPIN 240 272 In
FLAG 240 -112 +
IOPIN 240 -112 In
FLAG -16 112 A
IOPIN -16 112 In
FLAG 496 112 B
IOPIN 496 112 In
FLAG 432 -80 Out
IOPIN 432 -80 Out
FLAG 368 -16 +
IOPIN 368 -16 In
FLAG 496 -16 -
IOPIN 496 -16 In
SYMBOL npn 112 64 R0
SYMATTR InstName Q1
SYMBOL npn 368 64 M0
SYMATTR InstName Q2
SYMBOL res 224 -96 R0
SYMATTR InstName R1
SYMATTR Value 10k
SYMBOL res 96 96 R90
WINDOW 0 0 56 VBottom 2
WINDOW 3 32 56 VTop 2
SYMATTR InstName R2
SYMATTR Value 10k
SYMBOL res 384 96 M90
WINDOW 0 0 56 VBottom 2
WINDOW 3 32 56 VTop 2
SYMATTR InstName R3
SYMATTR Value 10k
SYMBOL Buffer 432 0 R270
SYMATTR InstName X1
