Version 4
SHEET 1 900 680
WIRE 608 -144 608 -176
WIRE 240 -80 240 -112
WIRE 704 -64 704 -96
WIRE 608 -32 608 -64
WIRE 688 -32 608 -32
WIRE 768 -32 736 -32
WIRE 608 -16 608 -32
WIRE 240 32 240 0
WIRE 240 32 176 32
WIRE 304 32 240 32
WIRE 544 32 304 32
WIRE 704 32 704 0
WIRE 176 64 176 32
WIRE 304 64 304 32
WIRE 0 112 -16 112
WIRE 112 112 80 112
WIRE 400 112 368 112
WIRE 496 112 480 112
WIRE 608 112 608 80
WIRE 176 192 176 160
WIRE 240 192 176 192
WIRE 304 192 304 160
WIRE 304 192 240 192
WIRE 240 272 240 192
FLAG 240 272 -
IOPIN 240 272 In
FLAG 240 -112 +
IOPIN 240 -112 In
FLAG -16 112 A
IOPIN -16 112 In
FLAG 496 112 B
IOPIN 496 112 In
FLAG 768 -32 Out
IOPIN 768 -32 Out
FLAG 608 112 -
IOPIN 608 112 In
FLAG 608 -176 +
IOPIN 608 -176 In
FLAG 704 -96 +
IOPIN 704 -96 In
FLAG 704 32 -
IOPIN 704 32 In
SYMBOL npn 112 64 R0
SYMATTR InstName Q1
SYMBOL npn 368 64 M0
SYMATTR InstName Q2
SYMBOL res 224 -96 R0
SYMATTR InstName R1
SYMATTR Value 10k
SYMBOL res 96 96 R90
WINDOW 0 0 56 VBottom 2
WINDOW 3 32 56 VTop 2
SYMATTR InstName R2
SYMATTR Value 10k
SYMBOL res 384 96 M90
WINDOW 0 0 56 VBottom 2
WINDOW 3 32 56 VTop 2
SYMATTR InstName R3
SYMATTR Value 10k
SYMBOL npn 544 -16 R0
SYMATTR InstName Q3
SYMBOL res 592 -160 R0
SYMATTR InstName R4
SYMATTR Value 10k
SYMBOL Buffer 688 -32 R0
SYMATTR InstName X1
