Version 4
SHEET 1 2248 680
WIRE 1712 -320 1712 -352
WIRE 1232 -240 1232 -272
WIRE 1504 -240 1504 -272
WIRE 224 -176 224 -208
WIRE 1712 -176 1712 -240
WIRE 1024 -160 1024 -192
WIRE 1232 -128 1232 -160
WIRE 1264 -128 1232 -128
WIRE 1376 -128 1344 -128
WIRE 1504 -128 1504 -160
WIRE 1504 -128 1376 -128
WIRE 1536 -128 1504 -128
WIRE 1648 -128 1616 -128
WIRE 1232 -96 1232 -128
WIRE 1376 -96 1376 -128
WIRE 1504 -96 1504 -128
WIRE 224 -64 224 -96
WIRE 784 -48 752 -48
WIRE 896 -48 864 -48
WIRE 1024 -48 1024 -80
WIRE 1024 -48 896 -48
WIRE 1056 -48 1024 -48
WIRE 1168 -48 1136 -48
WIRE 1712 -48 1712 -80
WIRE 896 -16 896 -48
WIRE 1024 -16 1024 -48
WIRE 1376 0 1376 -32
WIRE 1504 16 1504 -16
WIRE 1232 32 1232 0
WIRE 0 80 0 48
WIRE 224 80 224 48
WIRE 896 80 896 48
WIRE 1024 96 1024 64
WIRE 0 192 0 160
WIRE 224 192 224 160
FLAG 224 -64 0
FLAG 224 192 0
FLAG 0 192 0
FLAG 0 48 Vcc
FLAG 224 48 SigB
FLAG 224 -208 SigA
FLAG 640 -64 SigA
FLAG 640 -32 SigB
FLAG 896 80 0
FLAG 1232 32 0
FLAG 1232 -272 Vcc
FLAG 1024 96 0
FLAG 1024 -192 Vcc
FLAG 1376 0 0
FLAG 1712 -48 0
FLAG 1712 -352 Vcc
FLAG 1504 16 0
FLAG 1504 -272 Vcc
SYMBOL voltage 224 -192 R0
WINDOW 123 0 0 Left 0
WINDOW 39 0 0 Left 0
SYMATTR InstName V1
SYMATTR Value SINE(2.5 2.5 100K)
SYMBOL voltage 224 64 R0
WINDOW 123 0 0 Left 0
WINDOW 39 0 0 Left 0
SYMATTR InstName V2
SYMATTR Value SINE(2.5 2.5 101K)
SYMBOL voltage 0 64 R0
WINDOW 123 0 0 Left 0
WINDOW 39 0 0 Left 0
SYMATTR InstName V3
SYMATTR Value 5
SYMBOL XNORgate 688 -48 R0
SYMATTR InstName X1
SYMBOL cap 880 -16 R0
SYMATTR InstName C1
SYMATTR Value 1n
SYMBOL res 768 -32 R270
WINDOW 0 32 56 VTop 2
WINDOW 3 0 56 VBottom 2
SYMATTR InstName R1
SYMATTR Value 10k
SYMBOL npn 1168 -96 R0
SYMATTR InstName Q1
SYMATTR Value BC547B
SYMBOL res 1152 -64 R90
WINDOW 0 0 56 VBottom 2
WINDOW 3 32 56 VTop 2
SYMATTR InstName R2
SYMATTR Value 100k
SYMBOL res 1008 -176 R0
SYMATTR InstName R5
SYMATTR Value 33.175k
SYMBOL res 1008 -32 R0
SYMATTR InstName R6
SYMATTR Value 9.0047k
SYMBOL res 1216 -256 R0
SYMATTR InstName R7
SYMATTR Value 1k
SYMBOL cap 1360 -96 R0
SYMATTR InstName C2
SYMATTR Value 10n
SYMBOL res 1248 -112 R270
WINDOW 0 32 56 VTop 2
WINDOW 3 0 56 VBottom 2
SYMATTR InstName R8
SYMATTR Value 10k
SYMBOL npn 1648 -176 R0
SYMATTR InstName Q3
SYMATTR Value BC547B
SYMBOL res 1632 -144 R90
WINDOW 0 0 56 VBottom 2
WINDOW 3 32 56 VTop 2
SYMATTR InstName R9
SYMATTR Value 100k
SYMBOL res 1488 -256 R0
SYMATTR InstName R10
SYMATTR Value 33.175k
SYMBOL res 1488 -112 R0
SYMATTR InstName R11
SYMATTR Value 9.0047k
SYMBOL res 1696 -336 R0
SYMATTR InstName R12
SYMATTR Value 1k
TEXT 664 104 Left 2 !.tran 10m
