Version 4
SHEET 1 880 680
WIRE 304 16 112 16
WIRE -32 32 -192 32
WIRE 192 48 112 48
WIRE -192 96 -192 32
WIRE 192 112 192 48
WIRE 304 112 304 16
WIRE -192 208 -192 176
WIRE 192 224 192 192
WIRE 304 224 304 192
FLAG 192 224 0
FLAG -192 208 0
FLAG 304 224 0
SYMBOL res 176 96 R0
SYMATTR InstName R1
SYMATTR Value 100k
SYMBOL voltage -192 80 R0
WINDOW 123 0 0 Left 0
WINDOW 39 0 0 Left 0
SYMATTR InstName V1
SYMATTR Value 6
SYMBOL res 288 96 R0
SYMATTR InstName R2
SYMATTR Value 100k
SYMBOL VCO 32 32 R0
SYMATTR InstName X1
TEXT -224 232 Left 2 !.tran 1m uic
