Version 4
SHEET 1 1196 1412
WIRE -624 -128 -624 -160
WIRE -624 -16 -624 -48
WIRE 816 -16 752 -16
WIRE 816 16 816 -16
WIRE 928 16 816 16
WIRE 1040 16 928 16
WIRE 1136 16 1040 16
WIRE 816 64 816 16
WIRE 928 64 928 16
WIRE 1040 64 1040 16
WIRE 1136 64 1136 16
WIRE -944 160 -944 112
WIRE -672 256 -848 256
WIRE -576 272 -608 272
WIRE -512 272 -576 272
WIRE -672 288 -704 288
WIRE -944 336 -944 304
WIRE -704 368 -704 288
WIRE -576 368 -576 272
WIRE -576 368 -704 368
WIRE 816 400 816 144
WIRE 816 400 432 400
WIRE 928 432 928 144
WIRE 928 432 432 432
WIRE 1040 464 1040 144
WIRE 1040 464 432 464
WIRE -944 496 -944 448
WIRE 1136 496 1136 144
WIRE 1136 496 432 496
WIRE -672 592 -848 592
WIRE -576 608 -608 608
WIRE -512 608 -576 608
WIRE -672 624 -704 624
WIRE -944 672 -944 640
WIRE -704 704 -704 624
WIRE -576 704 -576 608
WIRE -576 704 -704 704
WIRE -944 848 -944 800
WIRE -672 944 -848 944
WIRE -576 960 -608 960
WIRE -512 960 -576 960
WIRE -672 976 -704 976
WIRE -944 1024 -944 992
WIRE -704 1056 -704 976
WIRE -576 1056 -576 960
WIRE -576 1056 -704 1056
WIRE -944 1184 -944 1136
WIRE -672 1280 -848 1280
WIRE -576 1296 -608 1296
WIRE -512 1296 -576 1296
WIRE -672 1312 -704 1312
WIRE -944 1360 -944 1328
WIRE -704 1392 -704 1312
WIRE -576 1392 -576 1296
WIRE -576 1392 -704 1392
FLAG -944 336 0
FLAG -640 240 0
FLAG -944 112 Vcc
FLAG -640 304 Vcc
FLAG -512 272 Input1
FLAG -624 -16 0
FLAG -624 -160 Vcc
FLAG 112 400 Input1
FLAG 112 432 Input2
FLAG 112 464 Input3
FLAG 112 496 Input4
FLAG 112 528 Vcc
FLAG 752 -16 Vcc
FLAG -944 672 0
FLAG -640 576 0
FLAG -944 448 Vcc
FLAG -640 640 Vcc
FLAG -512 608 Input2
FLAG -944 1024 0
FLAG -640 928 0
FLAG -944 800 Vcc
FLAG -640 992 Vcc
FLAG -512 960 Input3
FLAG -944 1360 0
FLAG -640 1264 0
FLAG -944 1136 Vcc
FLAG -640 1328 Vcc
FLAG -512 1296 Input4
SYMBOL pot -960 256 M180
WINDOW 39 33 -80 Left 2
SYMATTR InstName X1
SYMBOL OpAmps\\UniversalOpAmp2 -640 272 M180
SYMATTR InstName U1
SYMBOL DC_Motor_Controller 272 464 R0
SYMATTR InstName X2
SYMBOL voltage -624 -144 R0
WINDOW 123 0 0 Left 0
WINDOW 39 24 44 Left 2
SYMATTR InstName V1
SYMATTR Value 7.4
SYMATTR SpiceLine Rser=0.7
SYMBOL res 800 48 R0
SYMATTR InstName R1
SYMATTR Value 0.2
SYMBOL res 912 48 R0
SYMATTR InstName R2
SYMATTR Value 0.2
SYMBOL res 1024 48 R0
SYMATTR InstName R3
SYMATTR Value 0.2
SYMBOL res 1120 48 R0
SYMATTR InstName R4
SYMATTR Value 0.2
SYMBOL pot -960 592 M180
WINDOW 39 33 -80 Left 2
SYMATTR InstName X3
SYMBOL OpAmps\\UniversalOpAmp2 -640 608 M180
SYMATTR InstName U2
SYMBOL pot -960 944 M180
WINDOW 39 33 -80 Left 2
SYMATTR InstName X4
SYMBOL OpAmps\\UniversalOpAmp2 -640 960 M180
SYMATTR InstName U3
SYMBOL pot -960 1280 M180
WINDOW 39 33 -80 Left 2
SYMATTR InstName X5
SYMBOL OpAmps\\UniversalOpAmp2 -640 1296 M180
SYMATTR InstName U4
TEXT 296 -168 Left 2 !.tran 1
