Version 4
SHEET 1 880 680
WIRE 0 96 0 64
WIRE 0 176 0 160
WIRE 128 176 0 176
WIRE 0 192 0 176
WIRE 0 304 0 272
FLAG 0 304 0
FLAG 0 64 CLK
IOPIN 0 64 In
FLAG 224 144 Q
IOPIN 224 144 Out
FLAG 224 176 QB
IOPIN 224 176 Out
FLAG 128 144 D
IOPIN 128 144 In
SYMBOL cap -16 96 R0
SYMATTR InstName C1
SYMATTR Value {C1}
SYMBOL res -16 176 R0
SYMATTR InstName R1
SYMATTR Value {R1}
SYMBOL DLatch 176 160 R0
SYMATTR InstName X1
SYMATTR SpiceLine Vcc = V1
TEXT 16 -80 Left 2 !.param C1 = C
TEXT 16 -32 Left 2 !.param R1 = R
TEXT 16 -120 Left 2 !.param V1 = Vcc
