Version 4
SHEET 1 880 680
FLAG -112 240 0
FLAG -224 240 0
FLAG -224 160 D
FLAG -112 160 CLK
FLAG 224 16 Q
FLAG 224 48 QB
FLAG 160 16 D
FLAG 160 48 CLK
SYMBOL voltage -224 144 R0
WINDOW 3 0 -435 VRight 2
WINDOW 123 0 0 Left 0
WINDOW 39 0 0 Left 0
SYMATTR Value PULSE(0 5 1.5 100u 100u 1 3 0)
SYMATTR InstName V1
SYMBOL voltage -112 144 R0
WINDOW 3 2 -418 VRight 2
WINDOW 123 0 0 Left 0
WINDOW 39 0 0 Left 0
SYMATTR Value PULSE(0 5 0 100u 100u 1 2 0)
SYMATTR InstName V2
SYMBOL DFF 208 16 R0
SYMATTR InstName X1
TEXT -256 264 Left 2 !.tran 5 startup
