Version 4
SHEET 1 880 680
FLAG -112 240 0
FLAG -224 240 0
FLAG -224 160 D
FLAG -112 160 EN
FLAG 272 160 Q
FLAG 272 192 QB
FLAG 176 160 D
FLAG 176 192 EN
SYMBOL DLatch 224 176 R0
SYMATTR InstName X1
SYMATTR SpiceLine Vcc = 4V
SYMBOL voltage -224 144 R0
WINDOW 3 -5 -390 VRight 2
WINDOW 123 0 0 Left 0
WINDOW 39 0 0 Left 0
SYMATTR InstName V1
SYMATTR Value PULSE(0 5 1.5 100u 100u 1 2 0)
SYMBOL voltage -112 144 R0
WINDOW 3 -1 -384 VRight 2
WINDOW 123 0 0 Left 0
WINDOW 39 0 0 Left 0
SYMATTR InstName V2
SYMATTR Value PULSE(0 5 0 100u 100u 1 2 0)
TEXT -258 264 Left 2 !.tran 5 startup
