Version 4
SHEET 1 880 680
WIRE -64 -16 -208 -16
WIRE 48 0 16 0
WIRE -64 16 -96 16
WIRE 48 48 48 0
WIRE 80 48 48 48
WIRE -208 64 -208 -16
WIRE -208 64 -240 64
WIRE -96 64 -96 16
WIRE -96 64 -128 64
WIRE 80 80 48 80
WIRE -96 112 -96 64
WIRE -64 112 -96 112
WIRE 48 128 48 80
WIRE 48 128 16 128
WIRE -208 144 -208 64
WIRE -144 144 -208 144
WIRE -64 144 -96 144
FLAG -128 64 EN
IOPIN -128 64 In
FLAG -240 64 D
IOPIN -240 64 In
FLAG 160 48 Q
IOPIN 160 48 Out
FLAG 160 80 QB
IOPIN 160 80 Out
SYMBOL SRLatch 112 48 R0
SYMATTR InstName X1
SYMATTR SpiceLine Vcc = {V1}
SYMBOL AND -48 0 R0
SYMATTR InstName X3
SYMATTR SpiceLine Vcc = {V1}
SYMBOL AND -48 128 R0
SYMATTR InstName X4
SYMATTR SpiceLine Vcc = {V1}
SYMBOL NOT -144 144 R0
SYMATTR InstName X2
SYMATTR SpiceLine Vcc = {V1}
TEXT -224 -80 Left 2 !.param V1 = Vcc
