Version 4
SHEET 1 1052 680
FLAG -112 208 0
FLAG 144 -112 A
FLAG -112 128 A
FLAG 224 -96 AND
FLAG -224 208 0
FLAG -224 128 B
FLAG 144 -80 B
FLAG 144 -16 A
FLAG 320 -112 A
FLAG 320 -16 A
FLAG 496 -112 A
FLAG 496 -16 A
FLAG 144 16 B
FLAG 320 16 B
FLAG 320 -80 B
FLAG 496 -80 B
FLAG 496 16 B
FLAG 224 0 NAND
FLAG 400 -96 OR
FLAG 400 0 NOR
FLAG 576 -96 XOR
FLAG 576 0 XNOR
FLAG 192 80 Buffer
FLAG 144 80 A
FLAG 144 144 A
FLAG 192 144 Inverter
SYMBOL voltage -112 112 R0
WINDOW 3 -111 -368 VRight 2
WINDOW 123 0 0 Left 0
WINDOW 39 0 0 Left 0
SYMATTR Value PULSE(0 5 0 100u 100u 1 2 2)
SYMATTR InstName V1
SYMBOL voltage -224 112 R0
WINDOW 3 114 -362 VRight 2
WINDOW 123 0 0 Left 0
WINDOW 39 0 0 Left 0
SYMATTR Value PULSE(0 5 0 100u 100u 2 4 1)
SYMATTR InstName V2
SYMBOL AND 160 -96 R0
SYMATTR InstName X1
SYMBOL Buffer 144 80 R0
SYMATTR InstName X7
SYMBOL NAND 160 0 R0
SYMATTR InstName X2
SYMBOL NOT 144 144 R0
SYMATTR InstName X8
SYMBOL OR 320 -96 R0
SYMATTR InstName X3
SYMBOL NOR 320 0 R0
SYMATTR InstName X4
SYMBOL XNOR 496 0 R0
SYMATTR InstName X6
SYMBOL XOR 496 -96 R0
SYMATTR InstName X5
TEXT -144 232 Left 2 !.tran 4 startup
