Version 4
SHEET 1 880 680
FLAG 0 464 0
FLAG 96 416 0
FLAG 192 368 0
FLAG 0 384 CLK
FLAG 192 288 R
FLAG 96 336 S
FLAG 160 176 R
FLAG 160 208 S
FLAG 160 144 CLK
FLAG 272 160 Q
FLAG 272 192 QB
SYMBOL SRFF 208 176 R0
SYMATTR InstName X1
SYMBOL voltage 0 368 R0
WINDOW 0 24 16 Invisible 2
WINDOW 123 0 0 Left 0
WINDOW 39 0 0 Left 0
SYMATTR InstName V1
SYMATTR Value PULSE(0 5 0 100n 100n 0.5 1 0)
SYMBOL voltage 96 320 R0
WINDOW 0 24 16 Invisible 2
WINDOW 123 0 0 Left 0
WINDOW 39 0 0 Left 0
SYMATTR InstName V2
SYMATTR Value PULSE(0 5 1.75 100n 100n 0.5 2 0)
SYMBOL voltage 192 272 R0
WINDOW 0 24 16 Invisible 2
WINDOW 123 0 0 Left 0
WINDOW 39 0 0 Left 0
SYMATTR InstName V3
SYMATTR Value PULSE(0 5 2.75 100n 100n 0.5 2 0)
TEXT -34 488 Left 2 !.tran 6 startup
