Version 4
SHEET 1 968 680
WIRE 32 128 0 128
WIRE 144 144 112 144
WIRE 32 160 0 160
WIRE 240 160 224 160
WIRE 256 160 240 160
WIRE 144 176 128 176
WIRE 240 224 240 160
WIRE 240 224 112 224
WIRE -176 240 -208 240
WIRE -80 240 -112 240
WIRE 0 240 0 160
WIRE 0 240 -80 240
WIRE 128 256 128 176
WIRE 256 256 128 256
WIRE -80 272 -80 240
WIRE 112 304 112 224
WIRE 144 304 112 304
WIRE 0 320 0 240
WIRE 32 320 0 320
WIRE 256 320 256 256
WIRE 256 320 224 320
WIRE 272 320 256 320
WIRE 144 336 112 336
WIRE 32 352 0 352
WIRE -80 384 -80 352
FLAG 0 128 S
IOPIN 0 128 In
FLAG 0 352 R
IOPIN 0 352 In
FLAG 272 320 Q
IOPIN 272 320 Out
FLAG 256 160 QB
IOPIN 256 160 Out
FLAG -208 240 CLK
IOPIN -208 240 In
FLAG -80 384 0
SYMBOL NOR 144 160 R0
SYMATTR InstName X1
SYMATTR SpiceLine Vcc = {V1}
SYMBOL NOR 144 320 R0
SYMATTR InstName X2
SYMATTR SpiceLine Vcc = {V1}
SYMBOL AND 48 144 R0
SYMATTR SpiceLine Vcc = {V1}
SYMATTR InstName X3
SYMBOL AND 48 336 R0
SYMATTR SpiceLine Vcc = {V1}
SYMATTR InstName X4
SYMBOL cap -112 224 R90
WINDOW 0 0 32 Invisible 2
WINDOW 3 32 32 VTop 2
SYMATTR InstName C1
SYMATTR Value {C}
SYMBOL res -64 368 R180
WINDOW 0 36 76 Invisible 2
WINDOW 3 36 40 Left 2
SYMATTR InstName R1
SYMATTR Value {R}
TEXT 144 40 Left 2 !.param V1 = Vcc
