Version 4
SHEET 1 880 680
FLAG -176 208 0
FLAG -80 208 0
FLAG -176 128 S
FLAG 128 128 S
FLAG -80 128 R
FLAG 128 160 R
FLAG 208 128 Q
FLAG 208 160 QB
SYMBOL SRLatch 160 128 R0
SYMATTR InstName X1
SYMBOL voltage -176 112 R0
WINDOW 3 4 -390 VRight 2
WINDOW 123 0 0 Left 0
WINDOW 39 0 0 Left 0
SYMATTR Value PULSE(0 5 2 100u 100u 1 6 2)
SYMATTR InstName V1
SYMBOL voltage -80 112 R0
WINDOW 3 3 -391 VRight 2
WINDOW 123 0 0 Left 0
WINDOW 39 0 0 Left 0
SYMATTR Value PULSE(0 5 4 100u 100u 1 1 1)
SYMATTR InstName V2
TEXT -208 232 Left 2 !.tran 10 startup
